*Heading
** Job name: Solid Model name: Solid
** Generated by: Abaqus/CAE 6.10-2
*Preprint, echo=NO, model=NO, history=NO, contact=NO
**
** PARTS
**
*Part, name=Impactor
*Node
      1,         0.25,           0.,           0.
      2,           0.,           0.,           0.
      3,           0.,         0.25,           0.
      4,           0.,           0.,         0.75
      5,         0.25,           0.,         0.75
      6,           0.,         0.25,         0.75
      7,        -0.25,           0.,           0.
      8,           0.,        -0.25,           0.
      9,        -0.25,           0.,         0.75
     10,           0.,        -0.25,         0.75
     11, 0.0487725809,  0.245196313,           0.
     12, 0.0956708565,  0.230969876,           0.
     13,  0.138892561,  0.207867399,           0.
     14,  0.176776692,  0.176776692,           0.
     15,  0.207867399,  0.138892561,           0.
     16,  0.230969876, 0.0956708565,           0.
     17,  0.245196313, 0.0487725809,           0.
     18,  0.200000003,           0.,           0.
     19,  0.150000006,           0.,           0.
     20,  0.100000001,           0.,           0.
** ... 1788 like lines cut
*Element, type=C3D8R
  1,  241,  242,  933,  922,   14,   15,  170,  169
  2,  242,  243,  934,  933,   15,   16,  171,  170
  3,  243,  244,  935,  934,   16,   17,  172,  171
  4,  244,   35,  185,  935,   17,    1,   18,  172
  5,  245,  246,  936,  921,  241,  242,  933,  922
  6,  246,  247,  937,  936,  242,  243,  934,  933
  7,  247,  248,  938,  937,  243,  244,  935,  934
  8,  248,   34,  186,  938,  244,   35,  185,  935
  9,  249,  250,  939,  920,  245,  246,  936,  921
 10,  250,  251,  940,  939,  246,  247,  937,  936
 11,  251,  252,  941,  940,  247,  248,  938,  937
 12,  252,   33,  187,  941,  248,   34,  186,  938
 13,  253,  254,  942,  919,  249,  250,  939,  920
 14,  254,  255,  943,  942,  250,  251,  940,  939
 15,  255,  256,  944,  943,  251,  252,  941,  940
 16,  256,   32,  188,  944,  252,   33,  187,  941
 17,  257,  258,  945,  918,  253,  254,  942,  919
 18,  258,  259,  946,  945,  254,  255,  943,  942
 19,  259,  260,  947,  946,  255,  256,  944,  943
 20,  260,   31,  189,  947,  256,   32,  188,  944
** ... 1420 like lines cut
*End Part
**  
*Part, name=Plate
*Node
      1,  0.176776692,  0.176776692,  0.159999996
      2,           0.,           0.,  0.159999996
      3,         0.25,           0.,  0.159999996
      4,  0.176776692,  0.176776692,           0.
      5,           0.,           0.,           0.
      6,         0.25,           0.,           0.
      7, -0.176776692, -0.176776692,  0.159999996
      8, -0.176776692, -0.176776692,           0.
      9,        -0.25,           0.,           0.
     10,        -0.25,           0.,  0.159999996
     11,          -3.,          -3.,           0.
     12,          -3.,           0.,           0.
     13,          -3.,           0.,  0.159999996
     14,          -3.,          -3.,  0.159999996
     15, -0.176776692, -0.176776692, -0.159999996
     16,        -0.25,           0., -0.159999996
     17,          -3.,          -3., -0.159999996
     18,          -3.,           0., -0.159999996
     19,           0.,        -0.25,  0.159999996
     20,           0.,        -0.25,           0.
** ... 18178 like lines cut
*Element, type=C3D8R
  1, 1251, 1252, 8309, 8304,   55,   56, 1220, 1219
  2, 1252, 1253, 8310, 8309,   56,   57, 1221, 1220
  3, 1253, 1254, 8311, 8310,   57,   58, 1222, 1221
  4, 1254, 1255, 8312, 8311,   58,   59, 1223, 1222
  5, 1255,   64, 1239, 8312,   59,    1,   60, 1223
  6, 1256, 1257, 8303, 8299, 1251, 1252, 8309, 8304
  7, 1257, 1258, 8302, 8303, 1252, 1253, 8310, 8309
  8, 1258, 1259, 8301, 8302, 1253, 1254, 8311, 8310
  9, 1259, 1260, 8300, 8301, 1254, 1255, 8312, 8311
 10, 1260,   65, 1240, 8300, 1255,   64, 1239, 8312
 11, 1239, 1241, 8335, 8312,   60,   61, 1224, 1223
 12, 1241, 1242, 8336, 8335,   61,   62, 1225, 1224
 13, 1242, 1243, 8337, 8336,   62,   63, 1226, 1225
 14, 1243,   74, 1275, 8337,   63,    2,   67, 1226
 15, 8312, 8335, 8338, 8311, 1223, 1224, 1227, 1222
 16, 8335, 8336, 8339, 8338, 1224, 1225, 1228, 1227
 17, 8336, 8337, 8340, 8339, 1225, 1226, 1229, 1228
 18, 8337, 1275, 1276, 8340, 1226,   67,   68, 1229
 19, 8311, 8338, 8341, 8310, 1222, 1227, 1230, 1221
 20, 8338, 8339, 8342, 8341, 1227, 1228, 1231, 1230
** ... 15876 like lines cut
*Nset, nset=_PickedSet36, internal, generate
     1,  18198,      1
*Elset, elset=_PickedSet36, internal, generate
     1,  15896,      1
*Nset, nset=_PickedSet37, internal, generate
     1,  18198,      1
*Elset, elset=_PickedSet37, internal, generate
     1,  15896,      1
*Orientation, name=Ori-1
          1.,           0.,           0.,           0.,           1.,           0.
3, 0.
** Section: PlateSection
*Solid Section, elset=_PickedSet37, orientation=Ori-1, material=Material-1
,
*End Part
**  
**
** ASSEMBLY
**
*Assembly, name=Assembly
**  
*Instance, name=Plate-1, part=Plate
*End Instance
**  
*Instance, name=Impactor-1, part=Impactor
          0.,           0., -0.911999996423721
*End Instance
**  
*Nset, nset=#02:Projectile, instance=Impactor-1, generate
    1,  1808,     1
*Elset, elset=#02:Projectile, instance=Impactor-1, generate
    1,  1440,     1
*Nset, nset=#01:PlateEdges, instance=Plate-1
   11,   12,   13,   14,   17,   18,   21,   22,   24,   25,   30,   31,   35,   36,   37,   38
   41,   42,   45,   46,   47,   49,   50,   51,  115,  116,  117,  118,  119,  120,  121,  122
  123,  124,  125,  126,  127,  128,  129,  130,  131,  132,  133,  134,  248,  249,  250,  251
  252,  253,  254,  255,  256,  257,  258,  259,  260,  373,  374,  375,  376,  377,  378,  379
  437,  438,  439,  440,  441,  442,  443,  479,  480,  481,  482,  483,  484,  525,  526,  527
  528,  529,  530,  531,  532,  533,  534,  535,  536,  537,  606,  607,  608,  609,  610,  611
  612,  613,  614,  615,  616,  617,  618,  619,  620,  621,  622,  623,  766,  767,  768,  769
  770,  771,  772,  773,  774,  775,  776,  777,  857,  858,  859,  860,  861,  862,  863,  864
  865,  866,  867,  868,  869,  870,  871,  872,  873,  874,  875,  926,  927,  928,  929,  930
  931,  932,  933,  934,  935,  936,  982,  983,  984,  985,  986,  987,  988,  989,  990,  991
  992,  993,  994,  995,  996,  997, 1006, 1007, 1008, 1009, 1010, 1011, 1012, 1013, 1022, 1023
 1024, 1025, 1026, 1027, 1028, 1029, 1054, 1055, 1056, 1057, 1058, 1059, 1060, 1061, 1062, 1063
 1064, 1065, 1066, 1067, 1068, 1069, 1132, 1133, 1134, 1135, 1136, 1137, 1138, 1139, 1140, 1141
 1142, 1143, 1144, 1145, 1146, 1147, 1148, 1149, 1150, 1151, 1152, 1153, 1154, 1155, 1156, 1157
 1158, 1159, 1160, 1161, 1162, 1163, 1164, 1165, 1166, 1167, 1168, 1169, 1203, 1204, 1205, 1206
 1207, 1208, 1209, 1210, 1211, 1212, 1213, 1214, 1215, 1216, 1217, 1218, 1331, 1332, 1333, 1334
 1335, 1336, 1337, 1338, 1339, 1340, 1341, 1342, 1343, 1344, 1345, 1346, 1347, 1348, 1349, 1350
 1351, 1873, 1874, 1875, 1876, 1877, 1878, 1879, 1880, 1881, 1882, 1883, 1884, 1885, 1886, 1887
 1888, 1889, 1890, 1891, 1892, 1893, 2681, 2682, 2683, 2684, 2685, 2686, 2687, 2688, 2689, 2690
 2691, 2692, 2693, 2694, 2695, 2696, 2697, 2698, 2699, 2700, 2701, 2985, 2986, 2987, 2988, 2989
** ... 19 like lines cut
*Elset, elset=#01:PlateEdges, instance=Plate-1
   917,   918,   919,   920,   921,   922,   923,   924,   925,   926,   927,   928,   929,   930,   931,   932
   933,   934,   935,   936,   937,   938,   939,   940,   941,   942,   943,   944,   945,   946,   947,   948
  1749,  1750,  1751,  1752,  1753,  1754,  1755,  1756,  1757,  1758,  1759,  1760,  1761,  1762,  1763,  1764
  1765,  1766,  1767,  1768,  1769,  1770,  1771,  1772,  1773,  1774,  1775,  1776,  1777,  1778,  1779,  1780
  1922,  1948,  1974,  2000,  2026,  2052,  2078,  2104,  2130,  2156,  2182,  2208,  2234,  2260,  2286,  2312
  2338,  2364,  2390,  2416,  2442,  2468,  2494,  2520,  2546,  2572,  2598,  2624,  2650,  2676,  2702,  2728
  2921,  2922,  2923,  2924,  2925,  2926,  2927,  2928,  2929,  2930,  2931,  2932,  2933,  2934,  2935,  2936
  2937,  2938,  2939,  2940,  2941,  2942,  2943,  2944,  2945,  2946,  2947,  2948,  2949,  2950,  2951,  2952
  4453,  4454,  4455,  4456,  4457,  4458,  4459,  4460,  4461,  4462,  4463,  4464,  4465,  4466,  4467,  4468
  4469,  4470,  4471,  4472,  4473,  4474,  4475,  4476,  4477,  4478,  4479,  4480,  4701,  4702,  4703,  4704
  4705,  4706,  4707,  4708,  4709,  4710,  4711,  4712,  4713,  4714,  4715,  4716,  4717,  4718,  4719,  4720
  4721,  4722,  4723,  4724,  4725,  4726,  4727,  4728,  6445,  6446,  6447,  6448,  6449,  6450,  6451,  6452
  6453,  6454,  6455,  6456,  6457,  6458,  6459,  6460,  6461,  6462,  6463,  6464,  6465,  6466,  6467,  6468
  6469,  6470,  6471,  6472,  6473,  6474,  6475,  6476,  6477,  6478,  6479,  6480,  7381,  7382,  7383,  7384
  7385,  7386,  7387,  7388,  7389,  7390,  7391,  7392,  7393,  7394,  7395,  7396,  7397,  7398,  7399,  7400
  7401,  7402,  7403,  7404,  7405,  7406,  7407,  7408,  7409,  7410,  7411,  7412,  7413,  7414,  7415,  7416
  7637,  7638,  7639,  7640,  7641,  7642,  7643,  7644,  7645,  7646,  7647,  7648,  7649,  7650,  7651,  7652
  7653,  7654,  7655,  7656,  7657,  7658,  7659,  7660,  7661,  7662,  7663,  7664,  7665,  7666,  7667,  7668
  7669,  7670,  7671,  7672,  8673,  8674,  8675,  8676,  8777,  8778,  8779,  8780,  8881,  8882,  8883,  8884
  8985,  8986,  8987,  8988,  9089,  9090,  9091,  9092,  9193,  9194,  9195,  9196,  9297,  9298,  9299,  9300
** ... 14 like lines cut
*End Assembly
** 
** MATERIALS
** 
*Material, name=Material-1
*Elastic, type=ENGINEERING CONSTANTS
1.,1.,1.,1.,1.,1.,1.,1.
1.,
