abaqus2dyna
============

abaqus2dyna is a script to convert, in a limited fashion, Abaqus keyword input  
files to LS-DYNA keyword input files.  It is a limited fashion because,
seriously, we can't really translate everything; that's what engineers are for.


License
=======

abaqusy2dyna is free software and licensed under the Apache License 2.0.  You are
welcome to change and redistribute it under certain conditions.  For more
information, see the LICENSE file or visit:

http://www.apache.org/licenses/LICENSE-2.0


Instructions
============

abaqus2dyna.py -i input -o output


Features
========

More to come later...


Info
====

Source code:
https://github.com/tbhartman/abaqus2dyna
